
#======================================================================
# CRYSTAL DATA
#----------------------------------------------------------------------
data_VESTA_phase_1

_chemical_name_common                  'graphite\(2)\(0\0\1)                  '
_cell_length_a                         9.840000
_cell_length_b                         9.840000
_cell_length_c                         15.000000
_cell_angle_alpha                      90.000000
_cell_angle_beta                       90.000000
_cell_angle_gamma                      120.000000
_cell_volume                           1257.801479
_space_group_name_H-M_alt              'P 1'
_space_group_IT_number                 1

loop_
_space_group_symop_operation_xyz
   'x, y, z'

loop_
   _atom_site_label
   _atom_site_occupancy
   _atom_site_fract_x
   _atom_site_fract_y
   _atom_site_fract_z
   _atom_site_adp_type
   _atom_site_U_iso_or_equiv
   _atom_site_type_symbol
   C1         1.0     0.000260     0.000382     0.066466    Uiso  ? C
   C2         1.0     0.166732     0.083362     0.066556    Uiso  ? C
   C3         1.0     0.249994     0.000100     0.066629    Uiso  ? C
   C4         1.0     0.416539     0.083360     0.066560    Uiso  ? C
   C5         1.0     0.500047     0.000377     0.066429    Uiso  ? C
   C6         1.0     0.666630     0.083674     0.066456    Uiso  ? C
   C7         1.0     0.750430     0.000953     0.066454    Uiso  ? C
   C8         1.0     0.916954     0.083662     0.066455    Uiso  ? C
   C9         1.0     0.999931     0.250155     0.066501    Uiso  ? C
   C10        1.0     0.166422     0.333142     0.066500    Uiso  ? C
   C11        1.0     0.249709     0.249829     0.066486    Uiso  ? C
   C12        1.0     0.416227     0.332554     0.066618    Uiso  ? C
   C13        1.0     0.500045     0.249826     0.066502    Uiso  ? C
   C14        1.0     0.666644     0.333143     0.066534    Uiso  ? C
   C15        1.0     0.750132     0.250169     0.066531    Uiso  ? C
   C16        1.0     0.916670     0.333443     0.066575    Uiso  ? C
   C17        1.0     0.999933     0.499971     0.066555    Uiso  ? C
   C18        1.0     0.166408     0.583459     0.066479    Uiso  ? C
   C19        1.0     0.249126     0.499660     0.066517    Uiso  ? C
   C20        1.0     0.415647     0.582921     0.065879    Uiso  ? C
   C21        1.0     0.499458     0.499060     0.065962    Uiso  ? C
   C22        1.0     0.667161     0.582925     0.065975    Uiso  ? C
   C23        1.0     0.750437     0.499665     0.066591    Uiso  ? C
   C24        1.0     0.916939     0.583449     0.066540    Uiso  ? C
   C25        1.0     0.000237     0.750042     0.066469    Uiso  ? C
   C26        1.0     0.166726     0.833542     0.066547    Uiso  ? C
   C27        1.0     0.249714     0.750045     0.066442    Uiso  ? C
   C28        1.0     0.416254     0.833844     0.066491    Uiso  ? C
   C29        1.0     0.499510     0.750615     0.065798    Uiso  ? C
   C30        1.0     0.667171     0.834462     0.065802    Uiso  ? C
   C31        1.0     0.751005     0.750605     0.065902    Uiso  ? C
   C32        1.0     0.917506     0.833842     0.066576    Uiso  ? C
   Li1        1.0     0.583271     0.667063     0.178474    Uiso  ? Li
